<?xml version="1.0" encoding="UTF-8"?>

<!-- generated on 01/24/20 11:03:04 by Eclipse SUMO netconvert Version 1.4.0
<configuration xmlns:xsi="http://www.w3.org/2001/XMLSchema-instance" xsi:noNamespaceSchemaLocation="http://sumo.dlr.de/xsd/netconvertConfiguration.xsd">

    <input>
        <osm-files value="mahattan.osm"/>
    </input>

    <output>
        <output-file value="mahattan.net.xml"/>
    </output>

    <projection>
        <proj.utm value="true"/>
    </projection>

    <report>
        <aggregate-warnings value="5"/>
    </report>

</configuration>
-->

<net version="1.3" junctionCornerDetail="5" limitTurnSpeed="5.50" xmlns:xsi="http://www.w3.org/2001/XMLSchema-instance" xsi:noNamespaceSchemaLocation="http://sumo.dlr.de/xsd/net_file.xsd">

    <location netOffset="-581597.09,-4505101.93" convBoundary="0.00,0.00,3789.68,3194.89" origBoundary="-74.033910,40.692395,-73.989410,40.740946" projParameter="+proj=utm +zone=18 +ellps=WGS84 +datum=WGS84 +units=m +no_defs"/>

    <type id="highway.bridleway" priority="1" numLanes="1" speed="2.78" allow="pedestrian" oneway="1" width="2.00"/>
    <type id="highway.bus_guideway" priority="1" numLanes="1" speed="27.78" allow="bus" oneway="1"/>
    <type id="highway.cycleway" priority="1" numLanes="1" speed="8.33" allow="bicycle" oneway="0" width="1.00"/>
    <type id="highway.footway" priority="1" numLanes="1" speed="2.78" allow="pedestrian" oneway="1" width="2.00"/>
    <type id="highway.ford" priority="1" numLanes="1" speed="2.78" allow="army" oneway="0"/>
    <type id="highway.living_street" priority="2" numLanes="1" speed="2.78" disallow="tram rail_urban rail rail_electric rail_fast ship" oneway="0"/>
    <type id="highway.motorway" priority="14" numLanes="2" speed="39.44" allow="private emergency authority army vip passenger hov taxi bus coach delivery truck trailer motorcycle evehicle custom1 custom2" oneway="1"/>
    <type id="highway.motorway_link" priority="9" numLanes="1" speed="22.22" allow="private emergency authority army vip passenger hov taxi bus coach delivery truck trailer motorcycle evehicle custom1 custom2" oneway="1"/>
    <type id="highway.path" priority="1" numLanes="1" speed="2.78" allow="pedestrian bicycle" oneway="1" width="2.00"/>
    <type id="highway.pedestrian" priority="1" numLanes="1" speed="2.78" allow="pedestrian" oneway="1" width="2.00"/>
    <type id="highway.primary" priority="12" numLanes="2" speed="27.78" disallow="tram rail_urban rail rail_electric rail_fast ship" oneway="0"/>
    <type id="highway.primary_link" priority="7" numLanes="1" speed="22.22" disallow="tram rail_urban rail rail_electric rail_fast ship" oneway="0"/>
    <type id="highway.raceway" priority="15" numLanes="2" speed="83.33" allow="vip" oneway="0"/>
    <type id="highway.residential" priority="3" numLanes="1" speed="13.89" disallow="tram rail_urban rail rail_electric rail_fast ship" oneway="0"/>
    <type id="highway.secondary" priority="11" numLanes="1" speed="27.78" disallow="tram rail_urban rail rail_electric rail_fast ship" oneway="0"/>
    <type id="highway.secondary_link" priority="6" numLanes="1" speed="22.22" disallow="tram rail_urban rail rail_electric rail_fast ship" oneway="0"/>
    <type id="highway.service" priority="1" numLanes="1" speed="5.56" allow="pedestrian delivery bicycle" oneway="0"/>
    <type id="highway.stairs" priority="1" numLanes="1" speed="1.39" allow="pedestrian" oneway="1" width="2.00"/>
    <type id="highway.step" priority="1" numLanes="1" speed="1.39" allow="pedestrian" oneway="1" width="2.00"/>
    <type id="highway.steps" priority="1" numLanes="1" speed="1.39" allow="pedestrian" oneway="1" width="2.00"/>
    <type id="highway.steps|railway.subway" priority="18" numLanes="1" speed="27.78" allow="pedestrian rail_urban" oneway="1" width="3.20"/>
    <type id="highway.tertiary" priority="10" numLanes="1" speed="22.22" disallow="tram rail_urban rail rail_electric rail_fast ship" oneway="0"/>
    <type id="highway.tertiary_link" priority="5" numLanes="1" speed="22.22" disallow="tram rail_urban rail rail_electric rail_fast ship" oneway="0"/>
    <type id="highway.track" priority="1" numLanes="1" speed="5.56" disallow="tram rail_urban rail rail_electric rail_fast ship" oneway="0"/>
    <type id="highway.trunk" priority="13" numLanes="2" speed="27.78" disallow="pedestrian bicycle tram rail_urban rail rail_electric rail_fast ship" oneway="0"/>
    <type id="highway.trunk_link" priority="8" numLanes="1" speed="22.22" disallow="pedestrian bicycle tram rail_urban rail rail_electric rail_fast ship" oneway="0"/>
    <type id="highway.unclassified" priority="4" numLanes="1" speed="13.89" disallow="tram rail_urban rail rail_electric rail_fast ship" oneway="0"/>
    <type id="highway.unsurfaced" priority="1" numLanes="1" speed="8.33" disallow="tram rail_urban rail rail_electric rail_fast ship" oneway="0"/>
    <type id="railway.highspeed" priority="21" numLanes="1" speed="69.44" allow="rail_fast" oneway="1"/>
    <type id="railway.light_rail" priority="19" numLanes="1" speed="27.78" allow="rail_urban" oneway="1"/>
    <type id="railway.preserved" priority="16" numLanes="1" speed="27.78" allow="rail" oneway="1"/>
    <type id="railway.rail" priority="20" numLanes="1" speed="44.44" allow="rail" oneway="1"/>
    <type id="railway.subway" priority="18" numLanes="1" speed="27.78" allow="rail_urban" oneway="1"/>
    <type id="railway.tram" priority="17" numLanes="1" speed="13.89" allow="tram" oneway="1"/>

    <edge id=":1272562764_0" function="internal">
        <lane id=":1272562764_0_0" index="0" allow="private emergency authority army vip passenger hov taxi bus coach delivery truck trailer motorcycle evehicle custom1 custom2" speed="13.41" length="0.10" shape="2431.96,2178.45 2431.96,2178.45"/>
    </edge>
    <edge id=":1272562931_0" function="internal">
        <lane id=":1272562931_0_0" index="0" disallow="tram rail_urban rail rail_electric rail_fast ship" speed="6.82" length="9.03" shape="2355.08,2148.15 2357.62,2148.40 2359.68,2147.89 2361.27,2146.62 2362.39,2144.59"/>
    </edge>
    <edge id=":1272562931_1" function="internal">
        <lane id=":1272562931_1_0" index="0" disallow="tram rail_urban rail rail_electric rail_fast ship" speed="11.18" length="10.80" shape="2355.08,2148.15 2358.15,2148.87 2360.25,2149.34 2362.38,2149.67 2365.51,2149.94"/>
        <lane id=":1272562931_1_1" index="1" disallow="tram rail_urban rail rail_electric rail_fast ship" speed="11.18" length="10.80" shape="2354.38,2151.28 2357.56,2152.02 2359.74,2152.51 2361.95,2152.85 2365.20,2153.12"/>
    </edge>
    <edge id=":1272562931_3" function="internal">
        <lane id=":1272562931_3_0" index="0" allow="private emergency authority army vip passenger hov taxi bus coach delivery truck trailer motorcycle evehicle custom1 custom2" speed="12.29" length="10.81" shape="2354.38,2151.28 2357.57,2151.49 2359.89,2151.03 2362.09,2150.85 2364.94,2151.92"/>
    </edge>
    <edge id=":1272562931_4" function="internal">
        <lane id=":1272562931_4_0" index="0" disallow="tram rail_urban rail rail_electric rail_fast ship" speed="11.18" length="12.29" shape="2358.26,2156.16 2362.39,2144.59"/>
    </edge>
    <edge id=":1272562931_5" function="internal">
        <lane id=":1272562931_5_0" index="0" disallow="tram rail_urban rail rail_electric rail_fast ship" speed="6.88" length="8.15" shape="2358.26,2156.16 2359.14,2154.68 2360.59,2153.69 2362.61,2153.17 2365.20,2153.12"/>
    </edge>
    <edge id=":1272562931_6" function="internal">
        <lane id=":1272562931_6_0" index="0" allow="private emergency authority army vip passenger hov taxi bus coach delivery truck trailer motorcycle evehicle custom1 custom2" speed="5.24" length="6.32" shape="2358.26,2156.16 2359.06,2154.68 2360.17,2153.94 2361.59,2153.94 2363.32,2154.68"/>
    </edge>
    <edge id=":1279337146_0" function="internal">
        <lane id=":1279337146_0_0" index="0" allow="rail_urban" speed="27.78" length="0.28" shape="1804.83,2141.77 1804.85,2142.05"/>
    </edge>
    <edge id=":1429415831_0" function="internal">
        <lane id=":1429415831_0_0" index="0" disallow="tram rail_urban rail rail_electric rail_fast ship" speed="11.18" length="5.66" shape="2161.42,2086.31 2163.09,2086.45 2164.23,2086.59 2165.36,2086.81 2167.00,2087.19"/>
    </edge>
    <edge id=":1431790464_0" function="internal">
        <lane id=":1431790464_0_0" index="0" disallow="tram rail_urban rail rail_electric rail_fast ship" speed="9.72" length="11.67" shape="1865.27,2167.21 1861.39,2165.98 1858.21,2165.32 1855.72,2165.23 1853.92,2165.71"/>
    </edge>
    <edge id=":1431790464_1" function="internal">
        <lane id=":1431790464_1_0" index="0" disallow="tram rail_urban rail rail_electric rail_fast ship" speed="9.35" length="10.75" shape="1865.27,2167.21 1862.55,2165.95 1860.42,2164.32 1858.87,2162.32 1857.92,2159.96"/>
    </edge>
    <edge id=":1431790464_2" function="internal">
        <lane id=":1431790464_2_0" index="0" allow="pedestrian delivery bicycle" speed="3.65" length="4.67" shape="1865.27,2167.21 1864.41,2166.05 1864.30,2165.16 1864.95,2164.54 1866.35,2164.19"/>
    </edge>
    <edge id=":1431790464_3" function="internal">
        <lane id=":1431790464_3_0" index="0" allow="pedestrian delivery bicycle" speed="4.70" length="6.91" shape="1866.26,2160.14 1864.29,2161.19 1863.64,2162.22 1864.33,2163.22 1866.35,2164.19"/>
    </edge>
    <edge id=":1431790464_4" function="internal">
        <lane id=":1431790464_4_0" index="0" disallow="tram rail_urban rail rail_electric rail_fast ship" speed="13.89" length="13.55" shape="1866.26,2160.14 1863.00,2161.47 1860.01,2162.76 1857.06,2164.13 1853.92,2165.71"/>
    </edge>
    <edge id=":1431790464_5" function="internal">
        <lane id=":1431790464_5_0" index="0" disallow="tram rail_urban rail rail_electric rail_fast ship" speed="6.30" length="9.25" shape="1866.26,2160.14 1862.92,2161.27 1860.42,2161.61 1858.75,2161.18 1857.92,2159.96"/>
    </edge>
    <edge id=":1431790465_0" function="internal">
        <lane id=":1431790465_0_0" index="0" disallow="pedestrian bicycle tram rail_urban rail rail_electric rail_fast ship" speed="7.18" length="8.42" shape="1696.35,2248.54 1694.54,2250.08 1693.42,2251.79 1692.98,2253.67 1693.22,2255.72"/>
    </edge>
    <edge id=":1431790465_1" function="internal">
        <lane id=":1431790465_1_0" index="0" disallow="pedestrian bicycle tram rail_urban rail rail_electric rail_fast ship" speed="8.01" length="10.65" shape="1696.35,2248.54 1693.30,2250.84 1691.25,2252.95 1690.19,2254.85 1690.13,2256.56"/>
    </edge>
    <edge id=":1431790465_2" function="internal">
        <lane id=":1431790465_2_0" index="0" disallow="pedestrian bicycle tram rail_urban rail rail_electric rail_fast ship" speed="15.65" length="9.70" shape="1690.84,2246.43 1693.22,2255.72"/>
        <lane id=":1431790465_2_1" index="1" disallow="pedestrian bicycle tram rail_urban rail rail_electric rail_fast ship" speed="15.65" length="9.70" shape="1687.73,2247.20 1690.13,2256.56"/>
        <lane id=":1431790465_2_2" index="2" disallow="pedestrian bicycle tram rail_urban rail rail_electric rail_fast ship" speed="15.65" length="9.70" shape="1684.63,2247.97 1687.04,2257.41"/>
        <lane id=":1431790465_2_3" index="3" disallow="pedestrian bicycle tram rail_urban rail rail_electric rail_fast ship" speed="15.65" length="9.70" shape="1681.52,2248.74 1683.96,2258.25"/>
    </edge>
    <edge id=":1538237248_0" function="internal">
        <lane id=":1538237248_0_0" index="0" disallow="tram rail_urban rail rail_electric rail_fast ship" speed="3.91" length="2.46" shape="2358.22,1929.87 2358.83,1929.59 2359.39,1929.56 2359.91,1929.78 2360.37,1930.26"/>
    </edge>
    <edge id=":1538237395_0" function="internal">
        <lane id=":1538237395_0_0" index="0" disallow="tram rail_urban rail rail_electric rail_fast ship" speed="11.18" length="5.70" shape="2157.11,2072.95 2161.47,2069.28"/>
    </edge>
    <edge id=":1538237434_0" function="internal">
        <lane id=":1538237434_0_0" index="0" disallow="tram rail_urban rail rail_electric rail_fast ship" speed="6.67" length="9.00" shape="2244.97,1996.67 2246.66,1998.32 2248.54,1999.06 2250.63,1998.89 2252.90,1997.82"/>
    </edge>
    <edge id=":1538237434_1" function="internal">
        <lane id=":1538237434_1_0" index="0" disallow="tram rail_urban rail rail_electric rail_fast ship" speed="11.18" length="10.93" shape="2244.97,1996.67 2246.86,1999.14 2248.35,2000.96 2249.92,2002.70 2252.07,2004.96"/>
    </edge>
    <edge id=":1538237434_2" function="internal">
        <lane id=":1538237434_2_0" index="0" disallow="tram rail_urban rail rail_electric rail_fast ship" speed="11.18" length="10.93" shape="2244.00,2004.15 2246.46,2002.24 2248.35,2000.84 2250.29,1999.51 2252.90,1997.82"/>
    </edge>
    <edge id=":1538237434_3" function="internal">
        <lane id=":1538237434_3_0" index="0" disallow="tram rail_urban rail rail_electric rail_fast ship" speed="6.75" length="9.06" shape="2244.00,2004.15 2246.06,2002.97 2248.09,2002.72 2250.09,2003.38 2252.07,2004.96"/>
    </edge>
    <edge id=":1683645326_0" function="internal">
        <lane id=":1683645326_0_0" index="0" disallow="tram rail_urban rail rail_electric rail_fast ship" speed="11.18" length="6.21" shape="2288.25,2126.65 2294.09,2128.64"/>
        <lane id=":1683645326_0_1" index="1" disallow="tram rail_urban rail rail_electric rail_fast ship" speed="11.18" length="6.21" shape="2287.17,2129.66 2293.08,2131.68"/>
    </edge>
    <edge id=":1692394900_0" function="internal">
        <lane id=":1692394900_0_0" index="0" allow="rail_urban" speed="27.78" length="25.80" shape="2175.61,2456.27 2188.70,2478.50"/>
    </edge>
    <edge id=":1692395049_0" function="internal">
        <lane id=":1692395049_0_0" index="0" allow="rail_urban" speed="5.14" length="8.56" shape="2414.45,3135.76 2414.51,3138.79 2415.04,3139.92 2416.03,3139.16 2417.50,3136.51"/>
    </edge>
    <edge id=":1695334087_0" function="internal">
        <lane id=":1695334087_0_0" index="0" allow="rail_urban" speed="27.78" length="5.09" shape="2094.31,2007.33 2097.10,2011.59"/>
    </edge>
    <edge id=":1695334103_0" function="internal">
        <lane id=":1695334103_0_0" index="0" allow="rail_urban" speed="27.78" length="2.02" shape="2337.56,2154.83 2339.47,2155.50"/>
    </edge>
    <edge id=":1967476770_0" function="internal">
        <lane id=":1967476770_0_0" index="0" allow="rail_urban" speed="27.78" length="20.72" shape="2310.00,2144.51 2329.35,2151.93"/>
    </edge>
    <edge id=":1967476770_1" function="internal">
        <lane id=":1967476770_1_0" index="0" allow="rail_urban" speed="27.78" length="20.86" shape="2308.89,2148.23 2313.53,2148.48 2319.22,2149.37 2324.86,2150.62 2329.35,2151.93"/>
    </edge>
    <edge id=":1967476773_0" function="internal">
        <lane id=":1967476773_0_0" index="0" allow="rail_urban" speed="5.74" length="11.68" shape="2423.76,2190.16 2427.57,2191.94 2428.69,2193.04 2427.12,2193.45 2422.85,2193.18"/>
    </edge>
    <edge id=":2052618395_0" function="internal">
        <lane id=":2052618395_0_0" index="0" allow="rail_urban" speed="27.78" length="5.06" shape="2102.18,2290.41 2097.76,2292.86"/>
    </edge>
    <edge id=":2054217376_0" function="internal">
        <lane id=":2054217376_0_0" index="0" allow="rail_urban" speed="27.78" length="3.00" shape="1946.79,2021.61 1945.46,2018.92"/>
    </edge>
    <edge id=":246858433_0" function="internal">
        <lane id=":246858433_0_0" index="0" disallow="tram rail_urban rail rail_electric rail_fast ship" speed="5.95" length="9.09" shape="1632.15,2064.71 1631.43,2062.20 1630.11,2060.79 1628.21,2060.48 1625.71,2061.26"/>
    </edge>
    <edge id=":246858433_1" function="internal">
        <lane id=":246858433_1_0" index="0" disallow="pedestrian bicycle tram rail_urban rail rail_electric rail_fast ship" speed="15.65" length="17.49" shape="1632.15,2064.71 1629.11,2047.73"/>
        <lane id=":246858433_1_1" index="1" disallow="pedestrian bicycle tram rail_urban rail rail_electric rail_fast ship" speed="15.65" length="17.49" shape="1635.32,2064.27 1632.24,2047.05"/>
        <lane id=":246858433_1_2" index="2" disallow="pedestrian bicycle tram rail_urban rail rail_electric rail_fast ship" speed="15.65" length="17.49" shape="1638.49,2063.82 1635.36,2046.36"/>
    </edge>
    <edge id=":246858433_4" function="internal">
        <lane id=":246858433_4_0" index="0" disallow="tram rail_urban rail rail_electric rail_fast ship" speed="9.99" length="15.68" shape="1638.49,2063.82 1638.11,2058.64 1638.56,2054.50 1639.85,2051.40 1641.98,2049.34"/>
    </edge>
    <edge id=":246858433_5" function="internal">
        <lane id=":246858433_5_0" index="0" disallow="tram rail_urban rail rail_electric rail_fast ship" speed="12.53" length="19.95" shape="1643.47,2052.18 1639.53,2054.39 1634.68,2056.88 1629.79,2059.30 1625.71,2061.26"/>
    </edge>
    <edge id=":246858433_6" function="internal">
        <lane id=":246858433_6_0" index="0" disallow="pedestrian bicycle tram rail_urban rail rail_electric rail_fast ship" speed="6.76" length="4.55" shape="1643.47,2052.18 1640.70,2053.19 1639.15,2052.76"/>
    </edge>
    <edge id=":246858433_7" function="internal">
        <lane id=":246858433_7_0" index="0" disallow="tram rail_urban rail rail_electric rail_fast ship" speed="3.65" length="2.34" shape="1643.47,2052.18 1642.03,2052.03 1641.31,2051.50"/>
    </edge>
    <edge id=":246858433_11" function="internal">
        <lane id=":246858433_11_0" index="0" disallow="pedestrian bicycle tram rail_urban rail rail_electric rail_fast ship" speed="6.76" length="7.76" shape="1639.15,2052.76 1638.42,2052.55 1636.65,2050.28 1635.36,2046.36"/>
    </edge>
    <edge id=":246858433_12" function="internal">
        <lane id=":246858433_12_0" index="0" disallow="tram rail_urban rail rail_electric rail_fast ship" speed="3.65" length="2.34" shape="1641.31,2051.50 1641.29,2050.61 1641.98,2049.34"/>
    </edge>
    <edge id=":246858433_8" function="internal">
        <lane id=":246858433_8_0" index="0" disallow="pedestrian bicycle tram rail_urban rail rail_electric rail_fast ship" speed="8.33" length="12.73" shape="1624.33,2058.37 1627.04,2056.55 1628.74,2054.17 1629.43,2051.23 1629.11,2047.73"/>
    </edge>
    <edge id=":246858433_9" function="internal">
        <lane id=":246858433_9_0" index="0" disallow="tram rail_urban rail rail_electric rail_fast ship" speed="12.53" length="19.83" shape="1624.33,2058.37 1628.39,2056.42 1633.24,2054.02 1638.05,2051.54 1641.98,2049.34"/>
    </edge>
    <edge id=":246858433_10" function="internal">
        <lane id=":246858433_10_0" index="0" disallow="tram rail_urban rail rail_electric rail_fast ship" speed="3.65" length="2.34" shape="1624.33,2058.37 1625.76,2058.58 1626.46,2059.13"/>
    </edge>
    <edge id=":246858433_13" function="internal">
        <lane id=":246858433_13_0" index="0" disallow="tram rail_urban rail rail_electric rail_fast ship" speed="3.65" length="2.34" shape="1626.46,2059.13 1626.45,2060.02 1625.71,2061.26"/>
    </edge>
    <edge id=":246858435_0" function="internal">
        <lane id=":246858435_0_0" index="0" disallow="tram rail_urban rail rail_electric rail_fast ship" speed="5.66" length="6.82" shape="1715.04,2526.62 1714.43,2524.22 1713.62,2522.59 1712.62,2521.73 1711.42,2521.65"/>
    </edge>
    <edge id=":246858435_1" function="internal">
        <lane id=":246858435_1_0" index="0" disallow="pedestrian bicycle tram rail_urban rail rail_electric rail_fast ship" speed="15.65" length="15.44" shape="1718.19,2526.04 1717.60,2521.47 1717.61,2518.30 1717.69,2515.12 1717.29,2510.52"/>
        <lane id=":246858435_1_1" index="1" disallow="pedestrian bicycle tram rail_urban rail rail_electric rail_fast ship" speed="15.65" length="15.44" shape="1721.34,2525.46 1720.76,2520.93 1720.77,2517.79 1720.85,2514.63 1720.46,2510.07"/>
        <lane id=":246858435_1_2" index="2" disallow="pedestrian bicycle tram rail_urban rail rail_electric rail_fast ship" speed="15.65" length="15.44" shape="1724.48,2524.87 1723.91,2520.39 1723.93,2517.27 1724.01,2514.15 1723.63,2509.63"/>
    </edge>
    <edge id=":246858435_4" function="internal">
        <lane id=":246858435_4_0" index="0" disallow="tram rail_urban rail rail_electric rail_fast ship" speed="7.63" length="12.41" shape="1730.78,2523.71 1730.34,2519.50 1730.78,2516.33 1732.10,2514.19 1734.30,2513.07"/>
    </edge>
    <edge id=":246858435_5" function="internal">
        <lane id=":246858435_5_0" index="0" disallow="tram rail_urban rail rail_electric rail_fast ship" speed="19.48" length="24.21" shape="1735.01,2516.19 1711.42,2521.65"/>
    </edge>
    <edge id=":246858435_6" function="internal">
        <lane id=":246858435_6_0" index="0" disallow="pedestrian bicycle tram rail_urban rail rail_electric rail_fast ship" speed="8.04" length="6.69" shape="1735.01,2516.19 1730.50,2516.65 1728.42,2516.07"/>
    </edge>
    <edge id=":246858435_7" function="internal">
        <lane id=":246858435_7_0" index="0" disallow="tram rail_urban rail rail_electric rail_fast ship" speed="3.65" length="2.34" shape="1735.01,2516.19 1733.66,2515.68 1733.10,2514.99"/>
    </edge>
    <edge id=":246858435_11" function="internal">
        <lane id=":246858435_11_0" index="0" disallow="pedestrian bicycle tram rail_urban rail rail_electric rail_fast ship" speed="8.04" length="8.57" shape="1728.42,2516.07 1727.09,2515.71 1724.80,2513.37 1723.63,2509.63"/>
    </edge>
    <edge id=":246858435_12" function="internal">
        <lane id=":246858435_12_0" index="0" disallow="tram rail_urban rail rail_electric rail_fast ship" speed="3.65" length="2.34" shape="1733.10,2514.99 1733.31,2514.12 1734.30,2513.07"/>
    </edge>
    <edge id=":246858435_8" function="internal">
        <lane id=":246858435_8_0" index="0" disallow="pedestrian bicycle tram rail_urban rail rail_electric rail_fast ship" speed="7.55" length="11.63" shape="1710.64,2518.54 1713.88,2517.38 1716.06,2515.65 1717.20,2513.36 1717.29,2510.52"/>
    </edge>
    <edge id=":246858435_9" function="internal">
        <lane id=":246858435_9_0" index="0" disallow="tram rail_urban rail rail_electric rail_fast ship" speed="19.48" length="24.29" shape="1710.64,2518.54 1734.30,2513.07"/>
    </edge>
    <edge id=":246858435_10" function="internal">
        <lane id=":246858435_10_0" index="0" disallow="tram rail_urban rail rail_electric rail_fast ship" speed="3.65" length="2.34" shape="1710.64,2518.54 1712.00,2519.03 1712.58,2519.70"/>
    </edge>
    <edge id=":246858435_13" function="internal">
        <lane id=":246858435_13_0" index="0" disallow="tram rail_urban rail rail_electric rail_fast ship" speed="3.65" length="2.34" shape="1712.58,2519.70 1712.39,2520.58 1711.42,2521.65"/>
    </edge>
    <edge id=":246866798_0" function="internal">
        <lane id=":246866798_0_0" index="0" allow="bicycle" speed="2.04" length="1.46" width="1.00" shape="1587.66,1911.95 1587.80,1911.53 1588.00,1911.34 1588.28,1911.39 1588.62,1911.68"/>
    </edge>
    <edge id=":246866806_0" function="internal">
        <lane id=":246866806_0_0" index="0" disallow="tram rail_urban rail rail_electric rail_fast ship" speed="3.47" length="3.10" shape="1677.26,2363.99 1676.95,2363.12 1676.48,2362.64 1675.83,2362.55 1675.03,2362.84"/>
    </edge>
    <edge id=":246866806_1" function="internal">
        <lane id=":246866806_1_0" index="0" allow="bicycle" speed="8.33" length="10.17" width="1.00" shape="1677.26,2363.99 1675.12,2354.05"/>
    </edge>
    <edge id=":246866806_2" function="internal">
        <lane id=":246866806_2_0" index="0" disallow="tram rail_urban rail rail_electric rail_fast ship" speed="7.13" length="7.27" shape="1677.26,2363.99 1676.72,2360.57 1676.75,2357.93 1677.10,2356.81"/>
    </edge>
    <edge id=":246866806_3" function="internal">
        <lane id=":246866806_3_0" index="0" allow="bicycle" speed="2.04" length="0.73" width="1.00" shape="1677.26,2363.99 1677.43,2363.57 1677.64,2363.40"/>
    </edge>
    <edge id=":246866806_16" function="internal">
        <lane id=":246866806_16_0" index="0" disallow="tram rail_urban rail rail_electric rail_fast ship" speed="7.13" length="2.35" shape="1677.10,2356.81 1677.33,2356.07 1678.47,2355.00"/>
    </edge>
    <edge id=":246866806_17" function="internal">
        <lane id=":246866806_17_0" index="0" allow="bicycle" speed="2.04" length="0.73" width="1.00" shape="1677.64,2363.40 1677.92,2363.47 1678.24,2363.78"/>
    </edge>
    <edge id=":246866806_4" function="internal">
        <lane id=":246866806_4_0" index="0" allow="bicycle" speed="5.53" length="5.09" width="1.00" shape="1680.81,2359.86 1679.49,2360.67 1678.62,2361.59 1678.20,2362.63 1678.24,2363.78"/>
    </edge>
    <edge id=":246866806_5" function="internal">
        <lane id=":246866806_5_0" index="0" disallow="tram rail_urban rail rail_electric rail_fast ship" speed="11.18" length="6.56" shape="1680.34,2358.87 1674.50,2361.87"/>
    </edge>
    <edge id=":246866806_6" function="internal">
        <lane id=":246866806_6_0" index="0" allow="bicycle" speed="5.51" length="1.82" width="1.00" shape="1679.86,2357.88 1678.24,2358.28 1678.10,2358.23"/>
    </edge>
    <edge id=":246866806_7" function="internal">
        <lane id=":246866806_7_0" index="0" disallow="tram rail_urban rail rail_electric rail_fast ship" speed="3.65" length="2.34" shape="1680.34,2358.87 1678.91,2358.67 1678.20,2358.12"/>
    </edge>
    <edge id=":246866806_18" function="internal">
        <lane id=":246866806_18_0" index="0" allow="bicycle" speed="5.51" length="5.46" width="1.00" shape="1678.10,2358.23 1676.90,2357.77 1675.87,2356.36 1675.12,2354.05"/>
    </edge>
    <edge id=":246866806_19" function="internal">
        <lane id=":246866806_19_0" index="0" disallow="tram rail_urban rail rail_electric rail_fast ship" speed="3.65" length="2.34" shape="1678.20,2358.12 1678.21,2357.23 1678.95,2355.99"/>
    </edge>
    <edge id=":246866806_8" function="internal">
        <lane id=":246866806_8_0" index="0" disallow="tram rail_urban rail rail_electric rail_fast ship" speed="3.58" length="3.21" shape="1676.10,2353.84 1676.41,2354.69 1676.92,2355.17 1677.60,2355.27 1678.47,2355.00"/>
    </edge>
    <edge id=":246866806_9" function="internal">
        <lane id=":246866806_9_0" index="0" allow="bicycle" speed="8.33" length="10.17" width="1.00" shape="1676.10,2353.84 1678.24,2363.78"/>
    </edge>
    <edge id=":246866806_10" function="internal">
        <lane id=":246866806_10_0" index="0" disallow="tram rail_urban rail rail_electric rail_fast ship" speed="7.27" length="7.25" shape="1676.10,2353.84 1676.64,2357.22 1676.65,2359.85 1676.32,2361.00"/>
    </edge>
    <edge id=":246866806_11" function="internal">
        <lane id=":246866806_11_0" index="0" allow="bicycle" speed="2.04" length="0.73" width="1.00" shape="1676.10,2353.84 1675.93,2354.26 1675.71,2354.43"/>
    </edge>
    <edge id=":246866806_20" function="internal">
        <lane id=":246866806_20_0" index="0" disallow="tram rail_urban rail rail_electric rail_fast ship" speed="7.27" length="2.31" shape="1676.32,2361.00 1676.11,2361.72 1675.03,2362.84"/>
    </edge>
    <edge id=":246866806_21" function="internal">
        <lane id=":246866806_21_0" index="0" allow="bicycle" speed="2.04" length="0.73" width="1.00" shape="1675.71,2354.43 1675.44,2354.36 1675.12,2354.05"/>
    </edge>
    <edge id=":246866806_12" function="internal">
        <lane id=":246866806_12_0" index="0" allow="bicycle" speed="5.70" length="5.22" width="1.00" shape="1672.43,2358.10 1673.80,2357.20 1674.70,2356.22 1675.14,2355.17 1675.12,2354.05"/>
    </edge>
    <edge id=":246866806_13" function="internal">
        <lane id=":246866806_13_0" index="0" disallow="tram rail_urban rail rail_electric rail_fast ship" speed="11.18" length="6.73" shape="1672.96,2359.07 1678.95,2355.99"/>
    </edge>
    <edge id=":246866806_14" function="internal">
        <lane id=":246866806_14_0" index="0" allow="bicycle" speed="5.44" length="1.96" width="1.00" shape="1673.49,2360.03 1675.11,2359.54 1675.37,2359.63"/>
    </edge>
    <edge id=":246866806_15" function="internal">
        <lane id=":246866806_15_0" index="0" disallow="tram rail_urban rail rail_electric rail_fast ship" speed="3.65" length="2.34" shape="1672.96,2359.07 1674.40,2359.19 1675.13,2359.70"/>
    </edge>
    <edge id=":246866806_22" function="internal">
        <lane id=":246866806_22_0" index="0" allow="bicycle" speed="5.44" length="5.38" width="1.00" shape="1675.37,2359.63 1676.44,2360.00 1677.49,2361.42 1678.24,2363.78"/>
    </edge>
    <edge id=":246866806_23" function="internal">
        <lane id=":246866806_23_0" index="0" disallow="tram rail_urban rail rail_electric rail_fast ship" speed="3.65" length="2.34" shape="1675.13,2359.70 1675.17,2360.60 1674.50,2361.87"/>
    </edge>
    <edge id=":246866810_0" function="internal">
        <lane id=":246866810_0_0" index="0" disallow="tram rail_urban rail rail_electric rail_fast ship" speed="4.15" length="3.63" shape="1710.37,2525.12 1709.99,2524.28 1709.39,2523.76 1708.57,2523.54 1707.51,2523.63"/>
    </edge>
    <edge id=":246866810_1" function="internal">
        <lane id=":246866810_1_0" index="0" allow="bicycle" speed="8.33" length="9.50" width="1.00" shape="1710.37,2525.12 1707.83,2515.97"/>
    </edge>
    <edge id=":246866810_2" function="internal">
        <lane id=":246866810_2_0" index="0" disallow="tram rail_urban rail rail_electric rail_fast ship" speed="5.85" length="6.16" shape="1710.37,2525.12 1709.65,2521.94 1709.38,2519.62 1709.45,2519.06"/>
    </edge>
    <edge id=":246866810_3" function="internal">